# File generated by Flopy version 3.3.7 on 08/27/2023 at 22:11:26.
BEGIN options
  PRINT_OPTION  summary
  COMPLEXITY  complex
END options

BEGIN nonlinear
  OUTER_HCLOSE  1.00000000E-08
END nonlinear

BEGIN linear
  INNER_HCLOSE  1.00000000E-08
END linear

