# File generated by Flopy version 3.3.7 on 08/27/2023 at 22:11:26.
BEGIN options
END options

BEGIN dimensions
  MAXBOUND  2
END dimensions

BEGIN period  1
  1 1       1.00000000
  1 6       2.00000000
END period  1

