# File generated by Flopy version 3.3.7 on 08/27/2023 at 22:11:26.
BEGIN options
  AUTO_FLOW_REDUCE       0.00000000
END options

BEGIN dimensions
  MAXBOUND  4
END dimensions

BEGIN period  1
  1 2       0.00120537
  1 3  3.54484020E-04
  1 4  7.29167638E-04
  1 6       0.00000000
END period  1

