# File generated by Flopy version 3.3.7 on 08/27/2023 at 22:11:26.
BEGIN options
END options

BEGIN griddata
  iconvert
    CONSTANT  0
  ss
    CONSTANT       0.00000000
  sy
    CONSTANT       0.15000000
END griddata

