# File generated by Flopy version 3.3.7 on 08/27/2023 at 22:11:26.
BEGIN options
  SAVE_FLOWS
END options

BEGIN packages
  disv6  second_case_base.disv  disv
  npf6  second_case_base.npf  npf
  ic6  second_case_base.ic  ic
  sto6  second_case_base.sto  sto
  chd6  second_case_base.chd  chd_0
  oc6  second_case_base.oc  oc
  sfr6  second_case_base.sfr  sfr_0
END packages

