# File generated by Flopy version 3.3.7 on 08/27/2023 at 22:11:26.
BEGIN options
  LENGTH_UNITS  meters
END options

BEGIN dimensions
  NLAY  1
  NCPL  6
  NVERT  24
END dimensions

BEGIN griddata
  top
    CONSTANT      10.00000000
  botm
    CONSTANT       0.00000000
END griddata

BEGIN vertices
  1  -1.74622983E-09       3.00000000
  2       1.00000000       3.00000000
  3  1.51339918E-09       2.00000000
  4  -1.74622983E-09       3.00000000
  5       1.00000000       3.00000000
  6       1.00000000       2.00000000
  7  1.51339918E-09       2.00000000
  8       1.00000000       3.00000000
  9       1.00000000       3.00000000
  10       2.00000000       3.00000000
  11       1.00000000       2.00000000
  12       1.00000000       3.00000000
  13       2.00000000       3.00000000
  14       2.00000000       2.00000000
  15       1.00000000       2.00000000
  16       2.00000000       3.00000000
  17       2.00000000       3.00000000
  18       3.00000000       3.00000000
  19       2.00000000       2.00000000
  20       2.00000000       3.00000000
  21       3.00000000       3.00000000
  22       3.00000000       2.00000000
  23       2.00000000       2.00000000
  24       3.00000000       3.00000000
END vertices

BEGIN cell2d
  1       0.33333333       2.66666667  3  2  3  4
  2       0.66666667       2.33333333  3  6  7  8
  3       1.33333333       2.66666667  3  10  11  12
  4       1.66666667       2.33333333  3  14  15  16
  5       2.33333333       2.66666667  3  18  19  20
  6       2.66666667       2.33333333  3  22  23  24
END cell2d

