# File generated by Flopy version 3.3.7 on 08/27/2023 at 22:11:26.
BEGIN options
END options

BEGIN timing
  TDIS6  second_case_base.tdis
END timing

BEGIN models
  gwf6  second_case_base.nam  second_case_base
END models

BEGIN exchanges
END exchanges

BEGIN solutiongroup  1
  ims6  second_case_base.ims  second_case_base
END solutiongroup  1

