# File generated by Flopy version 3.3.7 on 08/27/2023 at 22:11:26.
BEGIN griddata
  strt
    CONSTANT       1.00000000
END griddata

