# File generated by Flopy version 3.3.7 on 08/27/2023 at 22:11:26.
BEGIN options
END options

BEGIN griddata
  icelltype
    CONSTANT  0
  k
    CONSTANT       0.00100000
END griddata

