# File generated by Flopy version 3.3.7 on 08/27/2023 at 22:11:26.
BEGIN options
  BUDGET  FILEOUT  second_case_base.cbc
  HEAD  FILEOUT  second_case_base.hds
END options

BEGIN period  1
  SAVE  head  all
  SAVE  budget  all
  PRINT  head  all
  PRINT  budget  all
END period  1

